*Heading
File generated by TexGen v3.13.1
************
*** MESH ***
************
*Node
1, -0.875, -0.64, -0.02
2, -0.875, -0.64, 0.200002
3, -0.875, -0.64, 0.42
4, -0.875, 0.639984, -0.02
5, -0.875, 0.639984, 0.090001
6, -0.875, 0.639984, 0.200002
7, -0.875, 0.639984, 0.310001
8, -0.875, 0.639984, 0.42
9, 2.625, -0.64, -0.02
10, 2.625, -0.64, 0.200002
11, 2.625, -0.64, 0.42
12, 2.625, 0.639984, -0.02
13, 2.625, 0.639984, 0.090001
14, 2.625, 0.639984, 0.200002
15, 2.625, 0.639984, 0.310001
16, 2.625, 0.639984, 0.42
17, -0.875, 1.11, -0.02
18, -0.875, 1.11, 0.199998
19, -0.875, 1.11, 0.42
20, -0.875, 2.38998, -0.02
** ... 5660 like lines cut
*Element, Type=C3D4
1, 594, 521, 517, 595
2, 595, 521, 517, 522
3, 595, 522, 517, 518
4, 595, 522, 518, 596
5, 596, 522, 518, 523
6, 596, 523, 518, 519
7, 596, 523, 519, 597
8, 597, 523, 519, 524
9, 597, 524, 519, 520
10, 521, 53, 517, 54
11, 521, 54, 517, 522
12, 522, 54, 517, 518
13, 522, 54, 518, 55
14, 522, 55, 518, 523
15, 523, 55, 518, 519
16, 523, 55, 519, 56
17, 523, 56, 519, 524
18, 524, 56, 519, 57
19, 524, 57, 519, 520
20, 1336, 179, 927, 180
** ... 26432 like lines cut
********************
*** ORIENTATIONS ***
********************
** Orientation vectors
** 1st vector represents the fibre direction
** 2nd vector is an arbitrary vector perpendicular to the first
*Distribution Table, Name=TexGenOrientationVectors
COORD3D,COORD3D
*Distribution, Location=Element, Table=TexGenOrientationVectors, Name=TexGenOrientationVectors, Input=CSiC_RVE_0135.ori
*Orientation, Name=TexGenOrientations, Definition=coordinates
TexGenOrientationVectors
1, 0
********************
*** ELEMENT SETS ***
********************
** TexGen generates a number of element sets:
** All - Contains all elements
** Matrix - Contains all elements belonging to the matrix
** YarnX - Where X represents the yarn index
*ElSet, ElSet=All, Generate
1, 26452, 1
*ElSet, ElSet=Matrix
1, 2, 3, 4, 5, 6, 7, 8, 9, 10, 11, 12, 13, 14, 15, 16
17, 18, 19, 20, 21, 22, 23, 24, 25, 26, 27, 28, 29, 30, 31, 32
33, 37, 38, 39, 40, 41, 42, 43, 44, 45, 46, 47, 48, 49, 50, 51
52, 53, 54, 55, 56, 57, 58, 59, 60, 61, 62, 66, 67, 68, 69, 70
71, 72, 73, 74, 75, 76, 77, 78, 79, 80, 81, 82, 83, 84, 85, 86
87, 88, 89, 90, 94, 95, 96, 99, 100, 101, 102, 103, 104, 108, 109, 110
111, 112, 113, 114, 115, 116, 117, 118, 119, 120, 121, 127, 128, 129, 131, 132
133, 134, 135, 136, 137, 138, 139, 140, 141, 142, 143, 144, 145, 146, 147, 148
149, 150, 151, 152, 153, 154, 158, 159, 160, 164, 165, 166, 167, 168, 169, 176
177, 178, 179, 180, 181, 185, 186, 191, 192, 193, 194, 195, 196, 202, 203, 204
205, 206, 207, 208, 209, 210, 211, 212, 213, 214, 215, 216, 217, 218, 219, 220
221, 222, 223, 224, 225, 229, 230, 231, 232, 233, 234, 235, 236, 237, 238, 239
240, 241, 242, 243, 244, 245, 246, 247, 248, 249, 250, 251, 252, 253, 254, 255
259, 260, 261, 262, 263, 264, 265, 266, 267, 268, 269, 270, 271, 272, 273, 274
275, 276, 280, 281, 282, 283, 284, 285, 286, 287, 288, 289, 290, 291, 292, 293
294, 295, 296, 303, 304, 305, 306, 307, 308, 310, 311, 312, 318, 319, 320, 321
322, 323, 327, 328, 329, 330, 331, 332, 336, 337, 338, 339, 340, 341, 346, 347
348, 349, 350, 351, 355, 356, 357, 358, 359, 360, 361, 362, 363, 364, 365, 366
367, 368, 369, 370, 371, 375, 376, 377, 378, 379, 380, 381, 382, 383, 390, 391
392, 393, 394, 395, 397, 398, 399, 403, 404, 405, 406, 407, 408, 415, 416, 417
** ... 941 like lines cut
*ElSet, ElSet=Yarn0
34, 35, 36, 63, 64, 65, 97, 98, 105, 106, 107, 122, 123, 124, 125, 126
161, 162, 163, 187, 188, 189, 190, 197, 198, 199, 200, 201, 226, 227, 228, 256
257, 258, 277, 278, 279, 313, 314, 315, 316, 317, 333, 334, 335, 384, 385, 386
387, 388, 389, 488, 489, 490, 501, 502, 514, 515, 516, 517, 578, 579, 644, 645
646, 1178, 1179, 1180, 1181, 1203, 1204, 1228, 1229, 1230, 1374, 1460, 1461, 1462, 1479, 1499
1500, 1501, 1540, 1541, 1542, 1557, 1558, 1559, 1600, 1601, 1602, 1603, 1669, 1670, 1671, 1672
1681, 1682, 1683, 1690, 1691, 1692, 1700, 1701, 1702, 1709, 1710, 1711, 1712, 1723, 1724, 1725
1726, 1733, 1734, 1735, 1736, 1747, 1748, 1749, 1756, 1757, 1758, 1765, 1766, 1767, 1774, 1775
1776, 1786, 1787, 1788, 1789, 1790, 1791, 1800, 1815, 1816, 1817, 1849, 1850, 1851, 1852, 1859
1860, 1861, 1868, 1869, 1870, 1905, 1906, 1907, 1940, 1941, 1942, 1951, 1952, 1953, 2018, 2019
2020, 2050, 2051, 2052, 2053, 2084, 2085, 2086, 2153, 2154, 2155, 2156, 2157, 2158, 2237, 2269
2270, 2271, 2294, 2295, 2296, 2311, 2312, 2313, 2702, 2703, 2704, 2705, 2720, 2728, 2729, 2730
2731, 2732, 2733, 2854, 2855, 2856, 2857, 2864, 2865, 2866, 2867, 2874, 2875, 2876, 2877, 2878
2886, 2887, 2888, 2901, 2902, 2903, 2928, 2929, 2930, 3018, 3019, 3020, 3021, 3022, 3067, 3068
3069, 3070, 3071, 3072, 3079, 3080, 3081, 3090, 3091, 3092, 3093, 3101, 3102, 3103, 3104, 3105
3358, 3359, 3360, 3368, 3369, 3370, 3399, 3400, 3401, 3409, 3410, 3411, 3412, 3413, 3414, 3421
3422, 3431, 3432, 3433, 3440, 3441, 3442, 3452, 3462, 3463, 3464, 3475, 3476, 3477, 3478, 3479
3529, 3567, 3568, 3579, 3580, 3581, 3593, 3594, 3595, 3607, 3794, 3795, 3796, 3805, 3806, 3807
3815, 3816, 3817, 3824, 3825, 3826, 3827, 3828, 3829, 3838, 3839, 3847, 3848, 3849, 4069, 4070
4071, 4072, 4073, 4102, 4103, 4104, 4111, 4112, 4124, 4125, 4136, 4157, 4158, 4159, 4160, 4161
** ... 152 like lines cut
*ElSet, ElSet=Yarn1
352, 353, 354, 396, 421, 422, 423, 424, 425, 434, 435, 457, 458, 459, 460, 461
462, 555, 588, 589, 590, 697, 698, 699, 707, 708, 709, 734, 735, 736, 737, 754
755, 756, 764, 765, 766, 782, 783, 784, 813, 814, 815, 832, 833, 834, 841, 842
843, 916, 917, 918, 919, 920, 968, 969, 1073, 1074, 1117, 1118, 1119, 1120, 1121, 1122
1256, 1257, 1276, 1277, 1278, 1279, 1306, 1307, 1308, 1323, 1324, 1325, 1349, 1356, 1357, 1358
1391, 1392, 1393, 1394, 1395, 1442, 1443, 1444, 1617, 1618, 1973, 1974, 1975, 2006, 2007, 2008
2009, 2010, 2011, 2071, 2072, 2073, 2107, 2108, 2109, 2284, 2285, 2286, 2320, 2321, 2322, 2329
2344, 2345, 2346, 2362, 2363, 2364, 2365, 2366, 2367, 2379, 2380, 2381, 2390, 2391, 2392, 2393
2394, 2410, 2411, 2412, 2428, 2429, 2430, 2431, 2443, 2444, 2445, 2446, 2453, 2454, 2455, 2475
2476, 2477, 2485, 2486, 2487, 2494, 2526, 2527, 2534, 2535, 2536, 2551, 2552, 2553, 2570, 2571
2572, 2573, 2574, 2575, 2584, 2585, 2611, 2612, 2613, 2631, 2632, 2633, 2693, 2694, 2695, 2772
2773, 2774, 2775, 2776, 2809, 2810, 2811, 2812, 2959, 2960, 2961, 2973, 2974, 2975, 2982, 2983
2984, 3004, 3005, 3006, 3130, 3131, 3132, 3201, 3202, 3214, 3215, 3216, 3217, 3218, 3225, 3226
3227, 3228, 3236, 3237, 3238, 3239, 3240, 3247, 3248, 3249, 3250, 3251, 3252, 3261, 3262, 3263
3271, 3272, 3273, 3274, 3275, 3276, 3285, 3286, 3298, 3334, 3335, 3336, 3344, 3345, 3346, 3347
3348, 3614, 3615, 3616, 3628, 3629, 3630, 3631, 3632, 3633, 3640, 3641, 3642, 3649, 3650, 3863
3864, 3865, 3900, 3901, 3902, 3916, 3917, 3928, 3929, 3930, 3937, 3938, 3939, 3940, 3941, 3942
3950, 3951, 3952, 3959, 3960, 3961, 3969, 3970, 3971, 3980, 3981, 3982, 3994, 3995, 3996, 4026
4027, 4028, 4029, 4030, 4031, 4150, 4461, 4462, 4463, 4464, 4473, 4474, 4475, 4476, 4477, 4485
4486, 4487, 4496, 4497, 4498, 4499, 4500, 4512, 4513, 4514, 4515, 4522, 4523, 4524, 4525, 4526
** ... 156 like lines cut
*ElSet, ElSet=Yarn2
91, 92, 93, 155, 156, 157, 170, 171, 172, 173, 174, 175, 182, 183, 184, 297
298, 299, 300, 301, 302, 309, 324, 325, 326, 342, 343, 344, 345, 372, 373, 374
400, 401, 402, 409, 410, 411, 412, 413, 414, 442, 443, 444, 469, 478, 479, 480
510, 511, 512, 524, 525, 526, 534, 535, 536, 572, 573, 574, 635, 636, 658, 659
660, 679, 680, 959, 960, 961, 973, 974, 975, 976, 977, 978, 994, 995, 996, 1003
1004, 1005, 1020, 1021, 1022, 1055, 1056, 1057, 1064, 1065, 1066, 1078, 1079, 1080, 1081, 1082
1123, 1124, 1125, 1126, 1143, 1144, 1145, 1146, 1147, 1154, 1155, 1156, 1157, 1158, 1159, 1188
1189, 1190, 1197, 1198, 1199, 1219, 1220, 1221, 1237, 1238, 1239, 1280, 1281, 1282, 2044, 2045
2046, 2047, 2048, 2049, 2080, 2137, 2138, 2139, 2140, 2141, 2148, 2149, 2150, 2176, 2177, 2178
2203, 2204, 2205, 2212, 2213, 2214, 2231, 2232, 2233, 2263, 2264, 2265, 2266, 2267, 2333, 2334
2335, 2336, 2337, 2353, 2354, 2355, 2368, 2369, 2370, 2401, 2402, 2403, 2419, 2420, 2421, 2435
2458, 2459, 2460, 2461, 2462, 2463, 2498, 2499, 2500, 2501, 2508, 2509, 2510, 2589, 2590, 2591
2592, 2593, 2594, 2620, 2621, 2659, 2660, 2661, 2669, 2670, 2671, 2895, 2896, 2897, 2898, 2899
2910, 2911, 2912, 2921, 2922, 2923, 2924, 2937, 2938, 2939, 2940, 2941, 2950, 2992, 2993, 2994
2995, 2996, 2997, 3009, 3010, 3011, 3471, 3486, 3487, 3488, 3489, 3490, 3491, 3499, 3500, 3501
3502, 3510, 3511, 3512, 3521, 3522, 3523, 3524, 3525, 3536, 3537, 3538, 3539, 3548, 3549, 3550
3551, 3552, 3560, 3561, 3562, 3563, 3564, 3575, 3588, 3589, 3602, 3603, 3620, 3621, 3661, 3662
3663, 3664, 3672, 3673, 3674, 3675, 3676, 3685, 3686, 3687, 3688, 3696, 3697, 3698, 3707, 3708
3709, 3710, 3711, 3712, 3720, 3721, 3722, 3723, 3724, 4017, 4032, 4033, 4034, 4035, 4036, 4037
4045, 4046, 4047, 4057, 4058, 4065, 4066, 4067, 4099, 4100, 4101, 4209, 4210, 4223, 4224, 4225
** ... 153 like lines cut
*ElSet, ElSet=Yarn3
130, 451, 452, 453, 454, 455, 456, 649, 650, 651, 947, 948, 949, 950, 951, 1334
1335, 1336, 1343, 1344, 1345, 1365, 1366, 1367, 1378, 1379, 1380, 1387, 1404, 1405, 1406, 1407
1408, 1415, 1416, 1417, 1424, 1425, 1432, 1433, 1434, 1435, 1451, 1452, 1453, 1469, 1470, 1471
1490, 1491, 1492, 1505, 1506, 1513, 1514, 1515, 1522, 1523, 1524, 1531, 1532, 1533, 1545, 1546
1547, 1548, 1549, 1550, 1562, 1563, 1564, 1582, 1583, 1584, 1591, 1592, 1593, 1610, 1611, 1612
1613, 1627, 1628, 1646, 1647, 1648, 1649, 1650, 1716, 1740, 1777, 1778, 1779, 1804, 1805, 1806
1807, 1808, 1820, 1821, 1822, 1829, 1830, 1831, 1840, 1841, 1842, 1874, 1875, 1876, 1877, 1878
1879, 1896, 1897, 1898, 1910, 1911, 1912, 1913, 1914, 1931, 1932, 1933, 1968, 1969, 1970, 1971
1972, 2002, 2060, 2061, 2062, 2093, 2094, 2095, 2103, 2116, 2117, 2127, 2165, 2166, 2167, 2185
2186, 2187, 2194, 2195, 2196, 2221, 2222, 2223, 2224, 2244, 2245, 2246, 2253, 2254, 2255, 2278
2279, 2280, 2303, 2470, 2471, 2688, 2689, 2690, 2734, 2735, 2736, 2753, 2754, 2755, 2796, 2797
2798, 2805, 2819, 2820, 2821, 2822, 2834, 2835, 2842, 2843, 2844, 2845, 2846, 3025, 3026, 3027
3034, 3035, 3036, 3037, 3045, 3046, 3047, 3048, 3049, 3056, 3057, 3058, 3059, 3060, 3112, 3113
3114, 3126, 3127, 3128, 3129, 3139, 3140, 3141, 3148, 3149, 3150, 3151, 3160, 3161, 3162, 3169
3170, 3171, 3180, 3181, 3182, 3195, 3196, 3197, 3209, 3210, 3211, 3293, 3294, 3328, 3329, 3330
3331, 3332, 3380, 3381, 3382, 3390, 3391, 3392, 3731, 3732, 3733, 3734, 3735, 3736, 3744, 3745
3746, 3753, 3754, 3755, 3763, 3764, 3765, 3766, 3767, 3768, 3775, 3776, 3785, 3786, 3787, 3858
3859, 3860, 3872, 3873, 3874, 3875, 3883, 3884, 3885, 3893, 3894, 3895, 3896, 3897, 3909, 3910
3911, 3912, 3913, 3924, 3989, 3990, 4116, 4145, 4146, 4163, 4164, 4165, 4173, 4174, 4185, 4818
4819, 4820, 4829, 4830, 4839, 4840, 4841, 4842, 4853, 4854, 4855, 4856, 4857, 4858, 4866, 4867
** ... 153 like lines cut
*****************
*** MATERIALS ***
*****************
*Material, Name=Mat0
*Elastic
3e+09, 0.2
*Expansion
6.5e-06
*Material, Name=Mat1
*Elastic, type=ENGINEERING CONSTANTS
2e+11, 1e+10, 1e+10, 0.3, 0.4, 0.4, 5e+09, 5e+09
5e+09
*Expansion, type=ORTHO
-2e-07, 3e-06, 3e-06
*Solid Section, ElSet=Matrix, Material=Mat0
1.0,
*Solid Section, ElSet=Yarn0, Material=Mat1, Orientation=TexGenOrientations
1.0,
*Solid Section, ElSet=Yarn1, Material=Mat1, Orientation=TexGenOrientations
1.0,
*Solid Section, ElSet=Yarn2, Material=Mat1, Orientation=TexGenOrientations
1.0,
*Solid Section, ElSet=Yarn3, Material=Mat1, Orientation=TexGenOrientations
1.0,
*****************
*** NODE SETS ***
*****************
** AllNodes - Node set containing all elements
*NSet, NSet=AllNodes, Generate
1, 5680, 1
************************************
*** PERIODIC BOUNDARY CONDITIONS ***
************************************
*** ConstraintsDriver0 = e_x
*** ConstraintsDriver1 = e_y
*** ConstraintsDriver2 = e_z
*** ConstraintsDriver3 = e_xy
*** ConstraintsDriver4 = e_xz
*** ConstraintsDriver5 = e_yz
*Node
5681, 0, 0, 0
*NSet, NSet=ConstraintsDriver0
5681
*Node
5682, 0, 0, 0
*NSet, NSet=ConstraintsDriver1
5682
*Node
5683, 0, 0, 0
*NSet, NSet=ConstraintsDriver2
5683
*Node
5684, 0, 0, 0
*NSet, NSet=ConstraintsDriver3
5684
*Node
5685, 0, 0, 0
*NSet, NSet=ConstraintsDriver4
5685
*Node
5686, 0, 0, 0
*NSet, NSet=ConstraintsDriver5
5686
*NSet, NSet=FaceA, Unsorted
10, 13, 14, 15, 24, 27, 384, 385, 388, 389, 392, 393, 396, 397, 398, 401
402, 403, 406, 407, 410, 411, 414, 415, 418, 419, 370, 371, 374, 375, 376, 379
380, 381, 332, 333, 336, 337, 340, 341, 344, 345, 346, 349, 350, 351, 354, 355
358, 359, 362, 363, 366, 367, 328, 329, 422, 423
*NSet, NSet=FaceB, Unsorted
2, 5, 6, 7, 18, 21, 138, 139, 142, 143, 146, 147, 150, 151, 152, 155
156, 157, 160, 161, 164, 165, 168, 169, 172, 173, 176, 177, 180, 181, 182, 185
186, 187, 190, 191, 194, 195, 198, 199, 202, 203, 204, 207, 208, 209, 212, 213
216, 217, 220, 221, 224, 225, 228, 229, 522, 523
*NSet, NSet=FaceC, Unsorted
36, 39, 48, 51, 324, 325, 286, 287, 290, 291, 294, 295, 298, 299, 302, 303
304, 307, 308, 309, 312, 313, 316, 317, 320, 321, 274, 275, 278, 279, 282, 283
236, 237, 240, 241, 244, 245, 248, 249, 252, 253, 254, 257, 258, 259, 262, 263
266, 267, 270, 271, 232, 233
*NSet, NSet=FaceD, Unsorted
30, 33, 42, 45, 426, 427, 430, 431, 434, 435, 438, 439, 442, 443, 446, 447
448, 451, 452, 453, 456, 457, 460, 461, 464, 465, 468, 469, 472, 473, 476, 477
480, 481, 484, 485, 488, 489, 492, 493, 496, 497, 498, 501, 502, 503, 506, 507
510, 511, 514, 515, 518, 519
*NSet, NSet=FaceE, Unsorted
76, 80, 84, 88, 92, 96, 100, 104, 108, 112, 116, 120, 124, 128, 132, 136
529, 534, 539, 543, 548, 553, 558, 562, 566, 571, 576, 580, 584, 589, 593, 597
601, 605, 609, 614, 620, 625, 630, 635, 640, 646, 651, 656, 661, 665, 670, 676
680, 686, 691, 696, 701, 706, 711, 716, 722, 727, 732, 736, 741, 745, 750, 755
760, 764, 769, 774, 780, 786, 791, 795, 801, 806, 811, 816, 820, 826, 832, 836
840, 845, 851, 857, 862, 868, 874, 878, 884, 890, 896, 900, 905, 911, 917, 921
926, 931, 937, 943, 949, 953, 957, 961, 966, 972, 977, 981, 987, 992, 997, 1001
1005, 1009, 1015, 1019, 1023, 1027, 1031, 1035, 1039, 1044, 1049, 1054, 1058, 1062, 1067, 1072
1078, 1083, 1087, 1092, 1097, 1102, 1107, 1112, 1117, 1121, 1125, 1130, 1134, 1138, 1143, 1149
1155, 1161, 1165, 1170, 1175, 1181, 1185, 1190, 1194, 1199, 1204, 1210, 1217, 1224, 1229, 1233
1237, 1242, 1247, 1253, 1258, 1262, 1267, 1271, 1276, 1281, 1285, 1289, 1293, 1297, 1303, 1309
1315, 1321, 1325, 1330, 1335, 1339, 1344, 1350, 1355, 1360, 1366, 1372, 1376, 1381, 1387, 1391
1396, 1400, 1405, 1409, 1413, 1418, 1424, 1429, 1436, 1442, 1449, 1455, 1461, 1467, 1474, 1481
1488, 1495, 1502, 1509, 1514, 1519, 1523, 1528, 1534, 1539, 1545, 1550, 1555, 1561, 1565, 1570
1574, 1578, 1584, 1590, 1594, 1599, 1604, 1608, 1612, 1618, 1623, 1627, 1632, 1637, 1641, 1647
1654, 1660, 1667, 1673, 1679, 1685, 1690, 1696, 1703, 1710, 1716, 1723, 1730, 1737, 1742, 1746
1751, 1756, 1762, 1769, 1775, 1782, 1788, 1794, 1799, 1805, 1811, 1816, 1821, 1828, 1834, 1839
1843, 1848, 1852, 1856, 1860, 1865, 1872, 1878, 1883, 1888, 1893, 1900, 1905, 1910, 1915, 1922
1928, 1935, 1941, 1947, 1953, 1959, 1965, 1971, 1977, 1982, 1988, 1994, 2000, 2006, 2013, 2019
2026, 2032, 2038, 2044, 2050, 2056, 2062, 2066, 2072, 2079, 2086, 2092, 2098, 2105, 2111, 2117
** ... 38 like lines cut
*NSet, NSet=FaceF, Unsorted
73, 77, 81, 85, 89, 93, 97, 101, 105, 109, 113, 117, 121, 125, 129, 133
525, 530, 535, 540, 544, 549, 554, 559, 563, 567, 572, 577, 581, 585, 590, 594
598, 602, 606, 610, 615, 621, 626, 631, 636, 641, 647, 652, 657, 662, 666, 671
677, 681, 687, 692, 697, 702, 707, 712, 717, 723, 728, 733, 737, 742, 746, 751
756, 761, 765, 770, 775, 781, 787, 792, 796, 802, 807, 812, 817, 821, 827, 833
837, 841, 846, 852, 858, 863, 869, 875, 879, 885, 891, 897, 901, 906, 912, 918
922, 927, 932, 938, 944, 950, 954, 958, 962, 967, 973, 978, 982, 988, 993, 998
1002, 1006, 1010, 1016, 1020, 1024, 1028, 1032, 1036, 1040, 1045, 1050, 1055, 1059, 1063, 1068
1073, 1079, 1084, 1088, 1093, 1098, 1103, 1108, 1113, 1118, 1122, 1126, 1131, 1135, 1139, 1144
1150, 1156, 1162, 1166, 1171, 1176, 1182, 1186, 1191, 1195, 1200, 1205, 1211, 1218, 1225, 1230
1234, 1238, 1243, 1248, 1254, 1259, 1263, 1268, 1272, 1277, 1282, 1286, 1290, 1294, 1298, 1304
1310, 1316, 1322, 1326, 1331, 1336, 1340, 1345, 1351, 1356, 1361, 1367, 1373, 1377, 1382, 1388
1392, 1397, 1401, 1406, 1410, 1414, 1419, 1425, 1430, 1437, 1443, 1450, 1456, 1462, 1468, 1475
1482, 1489, 1496, 1503, 1510, 1515, 1520, 1524, 1529, 1535, 1540, 1546, 1551, 1556, 1562, 1566
1571, 1575, 1579, 1585, 1591, 1595, 1600, 1605, 1609, 1613, 1619, 1624, 1628, 1633, 1638, 1642
1648, 1655, 1661, 1668, 1674, 1680, 1686, 1691, 1697, 1704, 1711, 1717, 1724, 1731, 1738, 1743
1747, 1752, 1757, 1763, 1770, 1776, 1783, 1789, 1795, 1800, 1806, 1812, 1817, 1822, 1829, 1835
1840, 1844, 1849, 1853, 1857, 1861, 1866, 1873, 1879, 1884, 1889, 1894, 1901, 1906, 1911, 1916
1923, 1929, 1936, 1942, 1948, 1954, 1960, 1966, 1972, 1978, 1983, 1989, 1995, 2001, 2007, 2014
2020, 2027, 2033, 2039, 2045, 2051, 2057, 2063, 2067, 2073, 2080, 2087, 2093, 2099, 2106, 2112
** ... 38 like lines cut
*NSet, NSet=Edge1, Unsorted
54, 55, 56
*NSet, NSet=Edge2, Unsorted
64, 65, 66
*NSet, NSet=Edge3, Unsorted
69, 70, 71
*NSet, NSet=Edge4, Unsorted
59, 60, 61
*NSet, NSet=Edge5, Unsorted
1, 4, 17, 20, 137, 141, 145, 149, 154, 159, 163, 167, 171, 175, 179, 184
189, 193, 197, 201, 206, 211, 215, 219, 223, 227, 521
*NSet, NSet=Edge6, Unsorted
9, 12, 23, 26, 383, 387, 391, 395, 400, 405, 409, 413, 417, 369, 373, 378
331, 335, 339, 343, 348, 353, 357, 361, 365, 327, 421
*NSet, NSet=Edge7, Unsorted
11, 16, 25, 28, 386, 390, 394, 399, 404, 408, 412, 416, 420, 372, 377, 382
334, 338, 342, 347, 352, 356, 360, 364, 368, 330, 424
*NSet, NSet=Edge8, Unsorted
3, 8, 19, 22, 140, 144, 148, 153, 158, 162, 166, 170, 174, 178, 183, 188
192, 196, 200, 205, 210, 214, 218, 222, 226, 230, 524
*NSet, NSet=Edge9, Unsorted
29, 32, 41, 44, 425, 429, 433, 437, 441, 445, 450, 455, 459, 463, 467, 471
475, 479, 483, 487, 491, 495, 500, 505, 509, 513, 517
*NSet, NSet=Edge10, Unsorted
35, 38, 47, 50, 323, 285, 289, 293, 297, 301, 306, 311, 315, 319, 273, 277
281, 235, 239, 243, 247, 251, 256, 261, 265, 269, 231
*NSet, NSet=Edge11, Unsorted
37, 40, 49, 52, 326, 288, 292, 296, 300, 305, 310, 314, 318, 322, 276, 280
284, 238, 242, 246, 250, 255, 260, 264, 268, 272, 234
*NSet, NSet=Edge12, Unsorted
31, 34, 43, 46, 428, 432, 436, 440, 444, 449, 454, 458, 462, 466, 470, 474
478, 482, 486, 490, 494, 499, 504, 508, 512, 516, 520
*NSet, NSet=MasterNode1, Unsorted
53
*NSet, NSet=MasterNode2, Unsorted
63
*NSet, NSet=MasterNode3, Unsorted
68
*NSet, NSet=MasterNode4, Unsorted
58
*NSet, NSet=MasterNode5, Unsorted
57
*NSet, NSet=MasterNode6, Unsorted
67
*NSet, NSet=MasterNode7, Unsorted
72
*NSet, NSet=MasterNode8, Unsorted
62
***************************
*** BOUNDARY CONDITIONS ***
***************************
*** Name: Translation stop Vertex 1 Type: Displacement/Rotation
*Boundary
MasterNode1, 1, 1
MasterNode1, 2, 2
MasterNode1, 3, 3

*****************
*** EQUATIONS ***
*****************
*Equation
3
FaceA, 1, 1.0, FaceB, 1, -1.0, ConstraintsDriver0, 1, -3.5
*Equation
2
FaceA, 2, 1.0, FaceB, 2, -1.0
*Equation
2
FaceA, 3, 1.0, FaceB, 3, -1.0
*Equation
3
FaceC, 1, 1.0, FaceD, 1, -1.0, ConstraintsDriver3, 1, -3.5
*Equation
3
FaceC, 2, 1.0, FaceD, 2, -1.0, ConstraintsDriver1, 1, -3.5
*Equation
2
FaceC, 3, 1.0, FaceD, 3, -1.0
*Equation
3
FaceE, 1, 1.0, FaceF, 1, -1.0, ConstraintsDriver4, 1, -0.44
*Equation
3
FaceE, 2, 1.0, FaceF, 2, -1.0, ConstraintsDriver5, 1, -0.44
*Equation
3
FaceE, 3, 1.0, FaceF, 3, -1.0, ConstraintsDriver2, 1, -0.44
*Equation
3
Edge2, 1, 1.0, Edge1, 1, -1.0, ConstraintsDriver0, 1, -3.5
*Equation
2
Edge2, 2, 1.0, Edge1, 2, -1.0
*Equation
2
Edge2, 3, 1.0, Edge1, 3, -1.0
*Equation
4
Edge3, 1, 1.0, Edge1, 1, -1.0, ConstraintsDriver0, 1, -3.5, ConstraintsDriver3, 1, -3.5
*Equation
3
Edge3, 2, 1.0, Edge1, 2, -1.0, ConstraintsDriver1, 1, -3.5
*Equation
2
Edge3, 3, 1.0, Edge1, 3, -1.0
*Equation
3
Edge4, 1, 1.0, Edge1, 1, -1.0, ConstraintsDriver3, 1, -3.5
*Equation
3
Edge4, 2, 1.0, Edge1, 2, -1.0, ConstraintsDriver1, 1, -3.5
*Equation
2
Edge4, 3, 1.0, Edge1, 3, -1.0
*Equation
3
Edge6, 1, 1.0, Edge5, 1, -1.0, ConstraintsDriver0, 1, -3.5
*Equation
2
Edge6, 2, 1.0, Edge5, 2, -1.0
*Equation
2
Edge6, 3, 1.0, Edge5, 3, -1.0
*Equation
4
Edge7, 1, 1.0, Edge5, 1, -1.0, ConstraintsDriver4, 1, -0.44, ConstraintsDriver0, 1, -3.5
*Equation
3
Edge7, 2, 1.0, Edge5, 2, -1.0, ConstraintsDriver5, 1, -0.44
*Equation
3
Edge7, 3, 1.0, Edge5, 3, -1.0, ConstraintsDriver2, 1, -0.44
*Equation
3
Edge8, 1, 1.0, Edge5, 1, -1.0, ConstraintsDriver4, 1, -0.44
*Equation
3
Edge8, 2, 1.0, Edge5, 2, -1.0, ConstraintsDriver5, 1, -0.44
*Equation
3
Edge8, 3, 1.0, Edge5, 3, -1.0, ConstraintsDriver2, 1, -0.44
*Equation
3
Edge10, 1, 1.0, Edge9, 1, -1.0, ConstraintsDriver3, 1, -3.5
*Equation
3
Edge10, 2, 1.0, Edge9, 2, -1.0, ConstraintsDriver1, 1, -3.5
*Equation
2
Edge10, 3, 1.0, Edge9, 3, -1.0
*Equation
4
Edge11, 1, 1.0, Edge9, 1, -1.0, ConstraintsDriver3, 1, -3.5, ConstraintsDriver4, 1, -0.44
*Equation
4
Edge11, 2, 1.0, Edge9, 2, -1.0, ConstraintsDriver1, 1, -3.5, ConstraintsDriver5, 1, -0.44
*Equation
3
Edge11, 3, 1.0, Edge9, 3, -1.0, ConstraintsDriver2, 1, -0.44
*Equation
3
Edge12, 1, 1.0, Edge9, 1, -1.0, ConstraintsDriver4, 1, -0.44
*Equation
3
Edge12, 2, 1.0, Edge9, 2, -1.0, ConstraintsDriver5, 1, -0.44
*Equation
3
Edge12, 3, 1.0, Edge9, 3, -1.0, ConstraintsDriver2, 1, -0.44
*Equation
3
MasterNode2, 1, 1.0, MasterNode1, 1, -1.0, ConstraintsDriver0, 1, -3.5
*Equation
2
MasterNode2, 2, 1.0, MasterNode1, 2, -1.0
*Equation
2
MasterNode2, 3, 1.0, MasterNode1, 3, -1.0
*Equation
4
MasterNode3, 1, 1.0, MasterNode1, 1, -1.0, ConstraintsDriver0, 1, -3.5, ConstraintsDriver3, 1, -3.5
*Equation
3
MasterNode3, 2, 1.0, MasterNode1, 2, -1.0, ConstraintsDriver1, 1, -3.5
*Equation
2
MasterNode3, 3, 1.0, MasterNode1, 3, -1.0
*Equation
3
MasterNode4, 1, 1.0, MasterNode1, 1, -1.0, ConstraintsDriver3, 1, -3.5
*Equation
3
MasterNode4, 2, 1.0, MasterNode1, 2, -1.0, ConstraintsDriver1, 1, -3.5
*Equation
2
MasterNode4, 3, 1.0, MasterNode1, 3, -1.0
*Equation
3
MasterNode5, 1, 1.0, MasterNode1, 1, -1.0, ConstraintsDriver4, 1, -0.44
*Equation
3
MasterNode5, 2, 1.0, MasterNode1, 2, -1.0, ConstraintsDriver5, 1, -0.44
*Equation
3
MasterNode5, 3, 1.0, MasterNode1, 3, -1.0, ConstraintsDriver2, 1, -0.44
*Equation
4
MasterNode6, 1, 1.0, MasterNode1, 1, -1.0, ConstraintsDriver4, 1, -0.44, ConstraintsDriver0, 1, -3.5
*Equation
3
MasterNode6, 2, 1.0, MasterNode1, 2, -1.0, ConstraintsDriver5, 1, -0.44
*Equation
3
MasterNode6, 3, 1.0, MasterNode1, 3, -1.0, ConstraintsDriver2, 1, -0.44
*Equation
5
MasterNode7, 1, 1.0, MasterNode1, 1, -1.0, ConstraintsDriver0, 1, -3.5, ConstraintsDriver4, 1, -0.44,
ConstraintsDriver3, 1, -3.5
*Equation
4
MasterNode7, 2, 1.0, MasterNode1, 2, -1.0, ConstraintsDriver1, 1, -3.5, ConstraintsDriver5, 1, -0.44
*Equation
3
MasterNode7, 3, 1.0, MasterNode1, 3, -1.0, ConstraintsDriver2, 1, -0.44
*Equation
4
MasterNode8, 1, 1.0, MasterNode1, 1, -1.0, ConstraintsDriver3, 1, -3.5, ConstraintsDriver4, 1, -0.44
*Equation
4
MasterNode8, 2, 1.0, MasterNode1, 2, -1.0, ConstraintsDriver1, 1, -3.5, ConstraintsDriver5, 1, -0.44
*Equation
3
MasterNode8, 3, 1.0, MasterNode1, 3, -1.0, ConstraintsDriver2, 1, -0.44
*******************
*** CREATE STEP ***
*******************
*** PREDEFINED FIELDS ***
*** Name: Initial temperature 0ºC all cells   Type: Temperature ***
*Initial Conditions, type=TEMPERATURE
AllNodes, 0.

*Step, Name=Isothermal linear perturbation step, perturbation
Elastic material property computation
*Static

***********************
*** OUTPUT REQUESTS ***
***********************
*Output, field
*Element Output, directions=YES
S,
*** FIELD OUTPUT: Output Request Fx ***
*Node Output, nset=ConstraintsDriver0
U,
*** FIELD OUTPUT: Output Request Fy ***
*Node Output, nset=ConstraintsDriver1
U,
*** FIELD OUTPUT: Ouput Request Fz ***
*Node Output, nset=ConstraintsDriver2
U,
*** FIELD OUTPUT: Output Request Shear_xy ***
*Node Output, nset=ConstraintsDriver3
U,
*** FIELD OUTPUT: Output Request Shear_zx ***
*Node Output, nset=ConstraintsDriver4
U,
*** FIELD OUTPUT: Output Request Shear_yz ***
*Node Output, nset=ConstraintsDriver5
U,

******************
*** LOAD CASES ***
******************
*Load Case, name=Load0
*Boundary, op=NEW
MasterNode1, 1, 1
MasterNode1, 2, 2
MasterNode1, 3, 3
*Cload
ConstraintsDriver0, 1, 5.39
*End Load Case

*Load Case, name=Load1
*Boundary, op=NEW
MasterNode1, 1, 1
MasterNode1, 2, 2
MasterNode1, 3, 3
*Cload
ConstraintsDriver1, 1, 5.39
*End Load Case

*Load Case, name=Load2
*Boundary, op=NEW
MasterNode1, 1, 1
MasterNode1, 2, 2
MasterNode1, 3, 3
*Cload
ConstraintsDriver2, 1, 5.39
*End Load Case

*Load Case, name=Load3
*Boundary, op=NEW
MasterNode1, 1, 1
MasterNode1, 2, 2
MasterNode1, 3, 3
*Cload
ConstraintsDriver3, 1, 5.39
*End Load Case

*Load Case, name=Load4
*Boundary, op=NEW
MasterNode1, 1, 1
MasterNode1, 2, 2
MasterNode1, 3, 3
*Cload
ConstraintsDriver4, 1, 5.39
*End Load Case

*Load Case, name=Load5
*Boundary, op=NEW
MasterNode1, 1, 1
MasterNode1, 2, 2
MasterNode1, 3, 3
*Cload
ConstraintsDriver5, 1, 5.39
*End Load Case


*End Step

*** STEP: Thermomechanical step ***
*Step, name=Thermomechanical step, perturbation
Coefficient of Thermal Expansion computation
*Static
*** PREDEFINED FIELDS ***
*** Name: Temperature steady 1ºC all cells   Type: Temperature ***
*Temperature
AllNodes, 1.
***********************
*** OUTPUT REQUESTS ***
***********************
*Output, field
*Element Output, directions=YES
S,
*** FIELD OUTPUT: Output Request Fx ***
*Node Output, nset=ConstraintsDriver0
U,
*** FIELD OUTPUT: Output Request Fy ***
*Node Output, nset=ConstraintsDriver1
U,
*** FIELD OUTPUT: Output Request Fz ***
*Node Output, nset=ConstraintsDriver2
U,
*End Step
