** ZHANG2022 replication deck V1_0 - built by BUILD_ZHANG2022_JOBS_V1_0.py
** UMAT: UMAT_CSIC_RVE_ZHANG2022_V1_0.for (card KEY=30)
*Heading
File generated by TexGen v3.13.1
************
*** MESH ***
************
*Node
1, -0.875, -0.64, -0.02
2, -0.875, -0.64, 0.053334
3, -0.875, -0.64, 0.126668
4, -0.875, -0.64, 0.200002
5, -0.875, -0.64, 0.273335
6, -0.875, -0.64, 0.346667
7, -0.875, -0.64, 0.42
8, -0.875, 0.639984, -0.02
9, -0.875, 0.639984, 0.053334
10, -0.875, 0.639984, 0.126668
11, -0.875, 0.639984, 0.200002
12, -0.875, 0.639984, 0.273335
13, -0.875, 0.639984, 0.346667
14, -0.875, 0.639984, 0.42
15, 2.625, -0.64, -0.02
16, 2.625, -0.64, 0.053334
17, 2.625, -0.64, 0.126668
18, 2.625, -0.64, 0.200002
19, 2.625, -0.64, 0.273335
20, 2.625, -0.64, 0.346667
** ... 34029 like lines cut
*Element, Type=C3D4
1, 1772, 1647, 1639, 1648
2, 1772, 1648, 1639, 1773
3, 1773, 1648, 1639, 1640
4, 1773, 1648, 1640, 1649
5, 1773, 1649, 1640, 1774
6, 1774, 1649, 1640, 1641
7, 1774, 1649, 1641, 1650
8, 1774, 1650, 1641, 1775
9, 1775, 1650, 1641, 1642
10, 1775, 1650, 1642, 1651
11, 1775, 1651, 1642, 1776
12, 1776, 1651, 1642, 1643
13, 1776, 1651, 1643, 1652
14, 1776, 1652, 1643, 1777
15, 1777, 1652, 1643, 1644
16, 1777, 1652, 1644, 1653
17, 1777, 1653, 1644, 1778
18, 1778, 1653, 1644, 1645
19, 1778, 1653, 1645, 1654
20, 1778, 1654, 1645, 1779
** ... 174385 like lines cut
********************
*** ORIENTATIONS ***
********************
** Orientation vectors
** 1st vector represents the fibre direction
** 2nd vector is an arbitrary vector perpendicular to the first
*Distribution Table, Name=TexGenOrientationVectors
COORD3D,COORD3D
*Distribution, Location=Element, Table=TexGenOrientationVectors, Name=TexGenOrientationVectors, Input=CSIC_PLAIN_WEAVE_RVE_DAMAGE_V2_2.ori
*Orientation, Name=TexGenOrientations, Definition=coordinates
TexGenOrientationVectors
1, 0
********************
*** ELEMENT SETS ***
********************
** TexGen generates a number of element sets:
** All - Contains all elements
** Matrix - Contains all elements belonging to the matrix
** YarnX - Where X represents the yarn index
*ElSet, ElSet=All, Generate
1, 174405, 1
*ElSet, ElSet=Matrix
1, 2, 3, 4, 5, 6, 7, 8, 9, 10, 11, 12, 13, 14, 15, 16
17, 18, 19, 20, 21, 22, 23, 24, 25, 26, 27, 28, 29, 30, 31, 32
33, 34, 35, 36, 37, 38, 39, 40, 41, 42, 43, 44, 45, 46, 47, 48
49, 50, 51, 52, 53, 54, 55, 56, 57, 58, 59, 60, 61, 62, 63, 64
65, 66, 67, 68, 69, 70, 71, 72, 73, 74, 75, 76, 77, 78, 79, 80
81, 82, 83, 84, 85, 86, 87, 88, 89, 90, 91, 92, 93, 94, 95, 96
97, 98, 99, 100, 101, 102, 103, 104, 105, 106, 107, 108, 109, 110, 111, 112
113, 114, 115, 116, 117, 118, 119, 120, 121, 122, 123, 124, 125, 126, 127, 128
129, 130, 131, 132, 134, 135, 136, 137, 138, 139, 140, 141, 142, 143, 144, 145
146, 147, 148, 149, 150, 153, 154, 155, 156, 157, 158, 159, 160, 161, 162, 163
164, 165, 166, 167, 168, 169, 170, 171, 172, 173, 174, 175, 176, 177, 178, 179
180, 181, 182, 183, 184, 185, 186, 187, 188, 189, 190, 192, 193, 194, 195, 196
197, 198, 199, 200, 201, 202, 203, 204, 205, 206, 207, 208, 209, 215, 216, 217
218, 219, 220, 221, 222, 223, 224, 225, 226, 227, 228, 229, 230, 231, 234, 235
236, 237, 238, 239, 240, 241, 242, 243, 244, 245, 246, 247, 248, 249, 250, 251
258, 259, 260, 261, 262, 263, 264, 265, 266, 267, 268, 269, 270, 271, 272, 273
274, 275, 276, 277, 278, 279, 280, 281, 282, 283, 284, 285, 286, 287, 288, 289
290, 291, 297, 298, 299, 301, 302, 303, 304, 305, 306, 307, 308, 309, 310, 311
312, 313, 322, 323, 324, 325, 326, 327, 328, 329, 330, 331, 332, 333, 334, 335
336, 337, 338, 339, 340, 341, 342, 343, 344, 345, 346, 347, 348, 349, 350, 351
** ... 5703 like lines cut
*ElSet, ElSet=Yarn0
133, 210, 211, 212, 213, 214, 232, 233, 252, 253, 254, 255, 256, 257, 292, 293
294, 295, 296, 314, 315, 316, 317, 318, 319, 320, 321, 356, 357, 358, 359, 360
361, 362, 363, 364, 365, 379, 380, 381, 382, 383, 384, 420, 421, 422, 423, 424
425, 426, 427, 428, 528, 529, 530, 531, 532, 533, 543, 544, 545, 546, 547, 548
549, 550, 551, 606, 607, 608, 609, 610, 611, 612, 613, 614, 649, 650, 651, 652
653, 654, 655, 656, 672, 673, 674, 675, 676, 677, 678, 679, 680, 681, 715, 716
717, 718, 719, 720, 721, 722, 723, 724, 765, 783, 784, 785, 786, 787, 788, 801
802, 803, 804, 805, 806, 807, 973, 1008, 1009, 1010, 1011, 1012, 1013, 1208, 1209, 1210
1211, 1212, 1307, 1308, 1388, 1389, 1431, 1432, 1433, 1434, 1435, 1436, 1437, 1438, 1453, 1454
1455, 1456, 1457, 1458, 1459, 1460, 1461, 1496, 1497, 1498, 1499, 1500, 1501, 1502, 1503, 1504
1514, 1515, 1516, 1517, 1518, 1519, 1520, 1521, 1522, 1523, 1557, 1558, 1559, 1560, 1561, 1562
1563, 1564, 1640, 1641, 1642, 1643, 1644, 1645, 1646, 1647, 1648, 1649, 1662, 1663, 1664, 1665
1666, 1667, 1668, 1669, 1670, 1683, 1684, 1685, 1686, 1687, 1688, 1689, 1690, 1691, 1785, 1786
1787, 1788, 1789, 1790, 1791, 1792, 1793, 1794, 1810, 1811, 1812, 1813, 1814, 1815, 1816, 1817
1818, 1819, 1854, 1855, 1856, 1857, 1858, 1859, 1860, 1861, 1862, 1863, 1871, 1872, 1873, 1874
1875, 1876, 1987, 1988, 1989, 1990, 1991, 1992, 1993, 1994, 1995, 2005, 2006, 2007, 2200, 2201
2202, 2203, 2204, 2205, 2206, 2236, 2237, 2238, 2239, 2240, 3015, 3016, 4237, 4238, 4239, 4240
4241, 4242, 4243, 4244, 4245, 4313, 4314, 4315, 4316, 4317, 4318, 4336, 4337, 4338, 4339, 4340
4341, 4436, 4437, 4438, 4439, 4440, 4441, 4442, 4443, 4444, 4479, 4480, 4481, 4482, 4483, 4484
4773, 4774, 4775, 4776, 4777, 4836, 5163, 5164, 5165, 5166, 5191, 5192, 5210, 5211, 5212, 5213
** ... 1276 like lines cut
*ElSet, ElSet=Yarn1
151, 152, 2055, 2056, 2057, 2058, 2059, 2271, 2272, 2394, 2395, 2450, 2451, 2452, 2453, 2454
2455, 2456, 2457, 2515, 2516, 2517, 2518, 2519, 2520, 2521, 2531, 2532, 2533, 2534, 2535, 2536
2537, 2538, 2539, 2556, 2557, 2558, 2559, 2560, 2598, 2599, 2600, 2601, 2602, 2603, 2604, 2639
2640, 2641, 2642, 2643, 2644, 2645, 2646, 2647, 2663, 2664, 2701, 2702, 2703, 2704, 2705, 2706
2707, 2708, 2709, 2745, 2746, 2747, 2748, 2841, 2842, 2843, 2844, 2845, 2846, 2847, 2848, 2849
2850, 2866, 2867, 2868, 2869, 2870, 2871, 2872, 2873, 2874, 2931, 2932, 2933, 2934, 2935, 2936
2974, 2975, 2976, 2977, 2992, 2993, 2994, 2995, 2996, 2997, 3032, 3033, 3034, 3035, 3036, 3037
3038, 3039, 3300, 3337, 3338, 3339, 3340, 3341, 3342, 3343, 3344, 3345, 3439, 3440, 3441, 3442
3443, 3701, 3702, 3703, 3704, 3705, 3706, 3707, 3708, 3709, 3995, 4255, 4256, 4257, 4258, 4259
4260, 4261, 4262, 4263, 4537, 4538, 4539, 4540, 4541, 4542, 4543, 4544, 4545, 4691, 4692, 4693
4694, 4695, 4696, 4697, 4698, 4714, 4715, 4716, 4717, 5586, 5587, 5588, 5589, 5590, 5624, 5625
5626, 5627, 5628, 5629, 5699, 5700, 5804, 5805, 5806, 5807, 5808, 5809, 5876, 5877, 5878, 5879
5880, 5881, 5882, 5883, 5938, 5939, 5940, 5941, 5942, 5943, 5944, 5979, 5980, 5981, 5982, 5983
5984, 6046, 6047, 6048, 6049, 6050, 6051, 6062, 6063, 6064, 6065, 6066, 6067, 6068, 6069, 6070
6196, 6197, 6198, 6199, 6200, 6368, 6495, 6597, 6598, 6599, 6600, 6601, 6602, 6878, 6879, 6880
6881, 6882, 6883, 6884, 6885, 6886, 6979, 7001, 7002, 7003, 7004, 7005, 7006, 7007, 7008, 7009
7019, 7525, 7526, 7527, 7528, 7529, 7530, 7531, 7532, 7533, 7577, 7578, 7579, 7580, 7581, 7582
7717, 7777, 7778, 7779, 7780, 7781, 7782, 7783, 7784, 7785, 7798, 7799, 7800, 7801, 7802, 7803
7804, 7904, 7943, 7944, 7945, 7946, 7947, 7948, 7949, 7950, 7951, 7993, 7994, 7995, 7996, 7997
7998, 7999, 8000, 8001, 8002, 8016, 8017, 8018, 8019, 8020, 8021, 8022, 8023, 8024, 8059, 8060
** ... 1285 like lines cut
*ElSet, ElSet=Yarn2
191, 460, 461, 462, 463, 464, 465, 466, 467, 468, 469, 518, 519, 520, 521, 522
523, 524, 525, 757, 758, 759, 760, 761, 776, 777, 778, 779, 780, 781, 782, 1120
1121, 1122, 1123, 1124, 1142, 1143, 1144, 1145, 1146, 1147, 1148, 1149, 1150, 1186, 1187, 1188
1189, 1225, 1226, 1227, 1228, 1229, 1230, 1284, 1285, 1286, 1287, 1288, 1289, 1325, 1326, 1327
1328, 1329, 1330, 1345, 1346, 1347, 1348, 1349, 1350, 1351, 1352, 1353, 1404, 1405, 1406, 1407
1408, 1409, 1410, 1411, 1412, 1413, 1472, 1473, 1474, 1475, 1476, 1477, 1478, 1479, 1480, 1492
1536, 1537, 1538, 1539, 1540, 1541, 1542, 1543, 1544, 1577, 1578, 1579, 1580, 1581, 1582, 1583
1584, 1585, 1618, 1619, 1620, 1621, 1622, 1623, 1624, 1625, 1626, 1702, 1703, 1704, 1705, 1706
1707, 1708, 1709, 1710, 1723, 1724, 1725, 1726, 1727, 1728, 1729, 1730, 1731, 1747, 1748, 1765
1766, 1767, 1768, 1769, 1770, 1830, 1831, 1832, 1833, 1834, 1835, 1836, 1837, 1897, 1898, 1899
1900, 1901, 1978, 1979, 1980, 1981, 1982, 1983, 2134, 2135, 2136, 2137, 2138, 2139, 2543, 2544
2545, 2546, 2564, 3380, 3447, 3448, 3449, 3450, 3451, 3452, 3453, 3454, 3455, 3468, 3469, 3470
3471, 3472, 3573, 3574, 3575, 3576, 3577, 3594, 3595, 3633, 3634, 3635, 3636, 3637, 3638, 3639
3640, 3641, 3682, 3683, 3684, 3685, 3686, 3687, 3744, 3745, 3746, 3747, 3748, 3749, 3750, 3751
3786, 3787, 3788, 3789, 3790, 3791, 3792, 3793, 3828, 3829, 3830, 3831, 3832, 3833, 3834, 3835
3836, 3837, 3851, 3852, 3853, 3854, 3855, 3856, 3892, 3893, 3894, 3895, 3896, 3897, 3898, 3899
3900, 3901, 3999, 4000, 4001, 4002, 4003, 4004, 4005, 4017, 4018, 4019, 4020, 4021, 4022, 4023
4024, 4025, 4081, 4082, 4083, 4084, 4085, 4086, 4087, 4088, 4089, 4129, 4130, 4131, 4132, 4133
4134, 4135, 4136, 4151, 4152, 4153, 4154, 4155, 4156, 4157, 4158, 4159, 4194, 4195, 4196, 4197
4198, 4199, 4200, 4201, 4202, 4203, 4264, 4265, 4266, 4267, 4268, 4269, 4270, 4271, 4272, 4285
** ... 1266 like lines cut
*ElSet, ElSet=Yarn3
300, 1879, 1880, 1881, 1882, 1883, 1884, 1885, 1886, 1887, 2011, 2012, 2013, 2014, 2015, 2016
2244, 2245, 2246, 2247, 2248, 2249, 2250, 2251, 2252, 2262, 2263, 2264, 2265, 2266, 2267, 4733
4734, 4735, 4736, 4737, 4738, 4755, 4815, 4816, 4817, 4818, 4874, 4875, 4876, 4877, 4878, 4879
4932, 4933, 4934, 4935, 4936, 4937, 4938, 4939, 4952, 4953, 4954, 4955, 4956, 4957, 4958, 4959
4960, 4997, 4998, 5062, 5063, 5064, 5065, 5066, 5067, 5068, 5069, 5070, 5107, 5108, 5109, 5110
5111, 5112, 5113, 5114, 5115, 5146, 5147, 5148, 5149, 5150, 5151, 5152, 5170, 5171, 5172, 5173
5174, 5175, 5176, 5177, 5178, 5228, 5229, 5230, 5231, 5232, 5233, 5234, 5235, 5236, 5271, 5272
5273, 5274, 5275, 5276, 5277, 5278, 5279, 5293, 5294, 5295, 5296, 5297, 5298, 5315, 5316, 5336
5337, 5338, 5339, 5340, 5341, 5342, 5343, 5344, 5355, 5356, 5357, 5358, 5359, 5360, 5361, 5362
5363, 5422, 5423, 5424, 5425, 5426, 5443, 5444, 5445, 5446, 5447, 5448, 5449, 5450, 5468, 5486
5487, 5488, 5489, 5490, 5507, 5508, 5604, 5605, 5606, 5607, 5608, 5609, 5610, 5611, 5612, 5646
5647, 5648, 5649, 5650, 5651, 5668, 5688, 5689, 5690, 5691, 5692, 5693, 5694, 5695, 5800, 5865
5866, 5867, 5868, 5869, 5870, 5871, 5872, 5873, 5874, 5875, 6038, 6039, 6040, 6041, 6042, 6043
6124, 6125, 6126, 6127, 6128, 6129, 6168, 6169, 6170, 6171, 6172, 6173, 6184, 6185, 6186, 6187
6188, 6189, 6190, 6191, 6192, 6323, 6324, 6325, 6326, 6327, 6338, 6339, 6340, 6341, 6342, 6343
6344, 6345, 6346, 6359, 6360, 6361, 6362, 6363, 6364, 6426, 6427, 6428, 6429, 6430, 6431, 6432
6433, 6434, 6469, 6470, 6486, 6487, 6488, 6489, 6490, 6491, 6536, 6537, 6538, 6539, 6540, 6541
6586, 6587, 6873, 6874, 6997, 7167, 7168, 7169, 7170, 7171, 7187, 7188, 7189, 7190, 7191, 7192
7193, 7194, 7195, 7228, 7229, 7230, 7231, 7232, 7233, 7268, 7269, 7270, 7271, 7272, 7313, 7314
7315, 7316, 7317, 7318, 7319, 7320, 7321, 7336, 7337, 7338, 7339, 7340, 7341, 7381, 7382, 7383
** ... 1273 like lines cut
*****************
*** MATERIALS ***
*****************
** V2.3 SURGICAL MERGE: V2.2(1) PHYSICS + V2.2(2) STABILITY
**
** PRESERVED FROM THE WORKING PHYSICS MODEL:
** - Matrix Xt=310 MPa, temperature-dependent matrix CTE table,
**   crack-band Gf regularization, Weibull tensile-strength field,
**   14 matrix SDVs, 21 matrix PROPS, and all yarn properties.
** - Existing mesh, element sets, PBC equations, and orientation mapping.
** - Cooling history, homogenization loading, and output variables.
**
** MINIMAL NUMERICAL CHANGES ADOPTED FOR STABILITY:
** - Cooling increments: initial 0.001, maximum 0.0025, inc=10000.
** - Extended time-incrementation controls retained from V2.2(1).
** - Cooldown displacement-correction ratio set to 0.08.
** - Line search activated during cooldown.
** - Solver controls reset before linear perturbation homogenization.
** - 101 field-output intervals retained for about 10 degC resolution.
**
** Requires the 21-PROP-compatible UMAT used with V2.2(1).
** Uses the current V2.2 orientation file; mesh is unchanged.
** WarnElemDistorted must still be reviewed.
**
** Units: mm, N, MPa, degC
**
** DAMAGE MODEL NOTICE
** The elastic constants and CTE values are inherited from the verified
** V1.0 thermoelastic baseline. Strengths and softening coefficients below
** are CALIBRATION STARTERS selected to reproduce the reported qualitative
** cooling sequence: matrix cracking first, yarn transverse damage later,
** and no yarn longitudinal damage. They must be calibrated before use in
** a publication-grade prediction.
**
*Material, Name=SIC_MATRIX_DAMAGE
*Depvar
20,
1, DMT, Matrix tensile damage
2, DMC, Matrix compressive damage
3, RMT, Matrix maximum tensile criterion
4, RMC, Matrix maximum compressive criterion
5, DMACT, Stress-state-active matrix damage
6, I1SGN, Sign of first effective-stress invariant
7, MMODE, Dominant matrix mode: 1 tension, 2 compression
8, TMINIT, First matrix damage-initiation temperature
9, EQPS, Equivalent plastic strain
10, ATEFF, Effective softening factor (crack band)
11, MDJUMP, Matrix maximum historical damage jump
12, MCUTREQ, Matrix minimum historical PNEWDT factor
13, MTJUMP, Temperature at maximum matrix damage jump
14, MRJUMP, Criterion at maximum matrix damage jump
15, EP11, Plastic strain 11
16, EP22, Plastic strain 22
17, EP33, Plastic strain 33
18, EP12, Plastic strain 12 (engineering)
19, EP13, Plastic strain 13 (engineering)
20, EP23, Plastic strain 23 (engineering)
**
** Matrix PROPS (22) - ZHANG2022 V1_0 card (KEY=30 in slot 22):
** 1 phase; 2 E; 3 nu; 4 Xt; 5 Xc; 6 At; 7 Ac (used when G<=0);
** 8 dmax_t; 9 dmax_c; 10 eta; 11 max_djump; 12 freeze_step;
** 13 minimum_PNEWDT; 14 enable; 15 Gm_t; 16 Gm_c (N/mm, crack band);
** 17 SY0 (<=0: plasticity off); 18 HISO; 19-21 cutback trio; 22 KEY
** V2_0 FULL MODEL (Ge 2018 + Zhang 2022): Xt=Xc=310 (Zhang Table 2),
** crack band on; matrix PLASTICITY ON (SY0=250, HISO=100000 -- calibration
** starting values for the paper's 'pseudo-ductility', NOT paper-published).
*User Material, constants=22
2.0, 350000.0, 0.20, 310.0, 310.0, 0.0, 0.0, 0.99
0.99, 0.02, 0.10, 3.0, 0.25, 1.0, 0.031, 0.031
250.0, 100000.0, 1.15, 0.75, 0.50, 30.0
** Zhang Table 2: alpha_m = 4.5e-6 /K, temperature independent.
*Expansion, zero=1050.
4.5e-06,
**
** Yarn PROPS (38) - ZHANG2022 V1_0 card:
** 1 phase; 2-10 elastic constants; 11 Xt; 12 Xc; 13 Yt; 14 Yc;
** 15 S12; 16 S13; 17 S23; 18-21 exponential factors A1t A1c Att Atc;
** 22 dmax_longitudinal; 23 dmax_transverse; 24 eta; 25 max_djump;
** 26 freeze_step; 27 minimum_PNEWDT; 28 enable; 29-31 cutback trio;
** 32-35 G1t G1c Gtt Gtc (N/mm, 0 = fixed A); 36 X_PO; 37 rF; 38 K1
** (X_PO<=0: pure exponential Eq.17 for the 1t mode).
** V2_0 FULL MODEL: longitudinal Xt=2835, Xc=1956 (= Vf*3580, Vf*2470,
** T300 rule of mixtures at verified yarn Vf=0.792); longitudinal crack-band
** G1t=G1c=12.5 N/mm (Ge Table 3); Eq.18 mixed law ON (X_PO=700, rF=3, K1=8000).
** Transverse Yt=80,Yc=350 and shears S=120/120/100 are calibration knobs.
*Material, Name=CSIC_YARN_DAMAGE
*Depvar
17,
1, DY1T, Yarn longitudinal tensile damage
2, DY1C, Yarn longitudinal compressive damage
3, DYTT, Yarn transverse tensile damage
4, DYTC, Yarn transverse compressive damage
5, RY1T, Maximum longitudinal tensile criterion
6, RY1C, Maximum longitudinal compressive criterion
7, RYTT, Maximum transverse tensile criterion
8, RYTC, Maximum transverse compressive criterion
9, DY1, Combined longitudinal yarn damage
10, DYT, Combined transverse yarn damage
11, YMODE, Dominant yarn mode: 1 1T, 2 1C, 3 TT, 4 TC
12, TYINIT, First yarn damage-initiation temperature
13, YDJUMP, Yarn maximum historical damage jump
14, YCUTREQ, Yarn minimum historical PNEWDT factor
15, YTEND, Temperature at maximum yarn damage jump
16, YRFAC, Criterion at maximum yarn damage jump
17, YSHR1T, Shear share of longitudinal tensile criterion
*User Material, constants=38
1.0, 254967.228042, 44321.737572, 44321.737572, 0.247516386, 0.247516386, 0.395813581, 26431.515264
26431.515264, 15876.667974, 2835.0, 1956.0, 80.0, 350.0, 120.0, 120.0
100.0, 2.0, 2.0, 2.0, 2.0, 0.99, 0.99, 0.02
0.10, 3.0, 0.25, 1.0, 1.15, 0.75, 0.50, 12.5
12.5, 0.0, 0.0, 700.0, 3.0, 8000.0
*Expansion, type=ORTHO, zero=1050.
1.070925962822e-06, 3.324908565604e-06, 3.324908565604e-06
**
*Solid Section, ElSet=Matrix, Material=SIC_MATRIX_DAMAGE
1.0,
*Solid Section, ElSet=Yarn0, Material=CSIC_YARN_DAMAGE, Orientation=TexGenOrientations
1.0,
*Solid Section, ElSet=Yarn1, Material=CSIC_YARN_DAMAGE, Orientation=TexGenOrientations
1.0,
*Solid Section, ElSet=Yarn2, Material=CSIC_YARN_DAMAGE, Orientation=TexGenOrientations
1.0,
*Solid Section, ElSet=Yarn3, Material=CSIC_YARN_DAMAGE, Orientation=TexGenOrientations
1.0,
*****************
*** NODE SETS ***
*****************
** AllNodes - Node set containing all elements
*NSet, NSet=AllNodes, Generate
1, 34049, 1
************************************
*** PERIODIC BOUNDARY CONDITIONS ***
************************************
*** ConstraintsDriver0 = e_x
*** ConstraintsDriver1 = e_y
*** ConstraintsDriver2 = e_z
*** ConstraintsDriver3 = e_xy
*** ConstraintsDriver4 = e_xz
*** ConstraintsDriver5 = e_yz
*Node
34050, 0, 0, 0
*NSet, NSet=ConstraintsDriver0
34050
*Node
34051, 0, 0, 0
*NSet, NSet=ConstraintsDriver1
34051
*Node
34052, 0, 0, 0
*NSet, NSet=ConstraintsDriver2
34052
*Node
34053, 0, 0, 0
*NSet, NSet=ConstraintsDriver3
34053
*Node
34054, 0, 0, 0
*NSet, NSet=ConstraintsDriver4
34054
*Node
34055, 0, 0, 0
*NSet, NSet=ConstraintsDriver5
34055
*NSet, NSet=FaceA, Unsorted
16, 17, 18, 19, 20, 23, 24, 25, 26, 27, 44, 45, 46, 47, 48, 51
52, 53, 54, 55, 1148, 1149, 1150, 1151, 1152, 1153, 1156, 1157, 1158, 1159, 1160, 1161
1162, 1165, 1166, 1167, 1168, 1169, 1172, 1173, 1174, 1175, 1176, 1179, 1180, 1181, 1182, 1183
1184, 1187, 1188, 1189, 1190, 1191, 1192, 1195, 1196, 1197, 1198, 1199, 1200, 1203, 1204, 1205
1206, 1207, 1208, 1211, 1212, 1213, 1214, 1215, 1216, 1217, 1220, 1221, 1222, 1223, 1224, 1225
1228, 1229, 1230, 1231, 1232, 1233, 1236, 1237, 1238, 1239, 1240, 1241, 1244, 1245, 1246, 1247
1248, 1251, 1252, 1253, 1254, 1255, 1258, 1259, 1260, 1261, 1262, 1265, 1266, 1267, 1268, 1269
1272, 1273, 1274, 1275, 1276, 1277, 1102, 1103, 1104, 1105, 1106, 1107, 1110, 1111, 1112, 1113
1114, 1115, 1118, 1119, 1120, 1121, 1122, 1125, 1126, 1127, 1128, 1129, 1130, 1133, 1134, 1135
1136, 1137, 1138, 1141, 1142, 1143, 1144, 1145, 977, 978, 979, 980, 983, 984, 985, 986
987, 990, 991, 992, 993, 994, 997, 998, 999, 1000, 1001, 1002, 1005, 1006, 1007, 1008
1009, 1012, 1013, 1014, 1015, 1016, 1017, 1020, 1021, 1022, 1023, 1024, 1025, 1028, 1029, 1030
1031, 1032, 1033, 1036, 1037, 1038, 1039, 1040, 1041, 1044, 1045, 1046, 1047, 1048, 1049, 1052
1053, 1054, 1055, 1056, 1057, 1060, 1061, 1062, 1063, 1064, 1065, 1068, 1069, 1070, 1071, 1072
1075, 1076, 1077, 1078, 1079, 1082, 1083, 1084, 1085, 1086, 1089, 1090, 1091, 1092, 1093, 1096
1097, 1098, 1099, 953, 954, 955, 956, 957, 958, 961, 962, 963, 964, 965, 966, 967
970, 971, 972, 973, 974, 1280, 1281, 1282, 1283, 1284, 1287, 1288, 1289, 1290, 1291, 1292
1295, 1296, 1297, 1298, 1299, 1300
*NSet, NSet=FaceB, Unsorted
2, 3, 4, 5, 6, 9, 10, 11, 12, 13, 30, 31, 32, 33, 34, 37
38, 39, 40, 41, 264, 265, 266, 267, 268, 269, 272, 273, 274, 275, 276, 277
278, 281, 282, 283, 284, 285, 288, 289, 290, 291, 292, 295, 296, 297, 298, 299
300, 303, 304, 305, 306, 307, 308, 311, 312, 313, 314, 315, 316, 319, 320, 321
322, 323, 324, 327, 328, 329, 330, 331, 332, 333, 336, 337, 338, 339, 340, 341
344, 345, 346, 347, 348, 349, 352, 353, 354, 355, 356, 357, 360, 361, 362, 363
364, 367, 368, 369, 370, 371, 374, 375, 376, 377, 378, 381, 382, 383, 384, 385
388, 389, 390, 391, 392, 393, 396, 397, 398, 399, 400, 401, 404, 405, 406, 407
408, 409, 412, 413, 414, 415, 416, 419, 420, 421, 422, 423, 424, 427, 428, 429
430, 431, 432, 435, 436, 437, 438, 439, 442, 443, 444, 445, 448, 449, 450, 451
452, 455, 456, 457, 458, 459, 462, 463, 464, 465, 466, 467, 470, 471, 472, 473
474, 477, 478, 479, 480, 481, 482, 485, 486, 487, 488, 489, 490, 493, 494, 495
496, 497, 498, 501, 502, 503, 504, 505, 506, 509, 510, 511, 512, 513, 514, 517
518, 519, 520, 521, 522, 525, 526, 527, 528, 529, 530, 533, 534, 535, 536, 537
540, 541, 542, 543, 544, 547, 548, 549, 550, 551, 554, 555, 556, 557, 558, 561
562, 563, 564, 567, 568, 569, 570, 571, 572, 575, 576, 577, 578, 579, 580, 581
584, 585, 586, 587, 588, 1665, 1666, 1667, 1668, 1669, 1672, 1673, 1674, 1675, 1676, 1677
1680, 1681, 1682, 1683, 1684, 1685
*NSet, NSet=FaceC, Unsorted
72, 73, 74, 75, 76, 79, 80, 81, 82, 83, 100, 101, 102, 103, 104, 107
108, 109, 110, 111, 928, 929, 930, 931, 932, 933, 936, 937, 938, 939, 940, 941
942, 945, 946, 947, 948, 949, 950, 795, 796, 797, 798, 799, 800, 803, 804, 805
806, 807, 808, 809, 812, 813, 814, 815, 816, 819, 820, 821, 822, 823, 826, 827
828, 829, 830, 833, 834, 835, 836, 837, 838, 841, 842, 843, 844, 845, 846, 849
850, 851, 852, 853, 854, 857, 858, 859, 860, 861, 862, 865, 866, 867, 868, 869
870, 873, 874, 875, 876, 877, 878, 881, 882, 883, 884, 885, 886, 889, 890, 891
892, 893, 894, 897, 898, 899, 900, 901, 904, 905, 906, 907, 908, 911, 912, 913
914, 915, 916, 917, 920, 921, 922, 923, 924, 925, 748, 749, 750, 751, 752, 753
756, 757, 758, 759, 760, 761, 764, 765, 766, 767, 768, 769, 772, 773, 774, 775
776, 779, 780, 781, 782, 783, 784, 787, 788, 789, 790, 791, 792, 616, 617, 618
619, 620, 621, 624, 625, 626, 627, 628, 631, 632, 633, 634, 635, 638, 639, 640
641, 642, 645, 646, 647, 648, 649, 652, 653, 654, 655, 656, 657, 660, 661, 662
663, 664, 665, 668, 669, 670, 671, 672, 673, 676, 677, 678, 679, 680, 681, 682
685, 686, 687, 688, 689, 690, 693, 694, 695, 696, 697, 698, 701, 702, 703, 704
705, 706, 709, 710, 711, 712, 713, 714, 717, 718, 719, 720, 721, 724, 725, 726
727, 728, 731, 732, 733, 734, 735, 736, 737, 740, 741, 742, 743, 744, 745, 591
592, 593, 594, 595, 596, 599, 600, 601, 602, 603, 604, 605, 608, 609, 610, 611
612, 613
*NSet, NSet=FaceD, Unsorted
58, 59, 60, 61, 62, 65, 66, 67, 68, 69, 86, 87, 88, 89, 90, 93
94, 95, 96, 97, 1303, 1304, 1305, 1306, 1307, 1308, 1311, 1312, 1313, 1314, 1315, 1316
1317, 1320, 1321, 1322, 1323, 1324, 1325, 1328, 1329, 1330, 1331, 1332, 1333, 1336, 1337, 1338
1339, 1340, 1341, 1342, 1345, 1346, 1347, 1348, 1349, 1352, 1353, 1354, 1355, 1356, 1359, 1360
1361, 1362, 1363, 1366, 1367, 1368, 1369, 1370, 1371, 1374, 1375, 1376, 1377, 1378, 1379, 1382
1383, 1384, 1385, 1386, 1387, 1390, 1391, 1392, 1393, 1394, 1395, 1398, 1399, 1400, 1401, 1402
1403, 1406, 1407, 1408, 1409, 1410, 1411, 1414, 1415, 1416, 1417, 1418, 1419, 1422, 1423, 1424
1425, 1426, 1427, 1430, 1431, 1432, 1433, 1434, 1437, 1438, 1439, 1440, 1441, 1444, 1445, 1446
1447, 1448, 1449, 1450, 1453, 1454, 1455, 1456, 1457, 1458, 1461, 1462, 1463, 1464, 1465, 1466
1469, 1470, 1471, 1472, 1473, 1474, 1477, 1478, 1479, 1480, 1481, 1482, 1485, 1486, 1487, 1488
1489, 1492, 1493, 1494, 1495, 1496, 1497, 1500, 1501, 1502, 1503, 1504, 1505, 1508, 1509, 1510
1511, 1512, 1513, 1516, 1517, 1518, 1519, 1520, 1523, 1524, 1525, 1526, 1527, 1530, 1531, 1532
1533, 1534, 1537, 1538, 1539, 1540, 1541, 1544, 1545, 1546, 1547, 1548, 1549, 1552, 1553, 1554
1555, 1556, 1557, 1560, 1561, 1562, 1563, 1564, 1565, 1568, 1569, 1570, 1571, 1572, 1573, 1574
1577, 1578, 1579, 1580, 1581, 1582, 1585, 1586, 1587, 1588, 1589, 1590, 1593, 1594, 1595, 1596
1597, 1598, 1601, 1602, 1603, 1604, 1605, 1606, 1609, 1610, 1611, 1612, 1613, 1616, 1617, 1618
1619, 1620, 1623, 1624, 1625, 1626, 1627, 1628, 1629, 1632, 1633, 1634, 1635, 1636, 1637, 1640
1641, 1642, 1643, 1644, 1645, 1648, 1649, 1650, 1651, 1652, 1653, 1654, 1657, 1658, 1659, 1660
1661, 1662
*NSet, NSet=FaceE, Unsorted
150, 156, 164, 170, 178, 184, 192, 200, 208, 216, 224, 232, 240, 248, 254, 262
1694, 1701, 1708, 1716, 1723, 1732, 1739, 1747, 1756, 1763, 1771, 1779, 1787, 1795, 1804, 1812
1819, 1827, 1835, 1843, 1852, 1859, 1867, 1875, 1883, 1892, 1900, 1908, 1916, 1924, 1932, 1939
1947, 1956, 1964, 1972, 1980, 1988, 1996, 2003, 2011, 2019, 2027, 2035, 2042, 2049, 2056, 2064
2072, 2080, 2088, 2096, 2103, 2110, 2117, 2124, 2132, 2140, 2147, 2155, 2163, 2171, 2179, 2187
2194, 2202, 2209, 2216, 2224, 2232, 2240, 2248, 2256, 2264, 2272, 2280, 2288, 2296, 2304, 2312
2320, 2328, 2336, 2345, 2353, 2361, 2369, 2377, 2385, 2393, 2402, 2409, 2417, 2425, 2432, 2440
2449, 2457, 2464, 2472, 2481, 2489, 2498, 2506, 2515, 2523, 2532, 2540, 2548, 2556, 2565, 2573
2582, 2590, 2598, 2606, 2614, 2623, 2631, 2638, 2646, 2654, 2662, 2670, 2677, 2684, 2692, 2700
2707, 2714, 2723, 2731, 2740, 2749, 2759, 2766, 2774, 2782, 2790, 2798, 2806, 2814, 2822, 2830
2838, 2846, 2854, 2863, 2871, 2878, 2885, 2893, 2900, 2908, 2916, 2924, 2932, 2941, 2949, 2957
2965, 2974, 2983, 2992, 3000, 3008, 3016, 3025, 3033, 3041, 3049, 3058, 3066, 3074, 3082, 3090
3097, 3105, 3112, 3120, 3128, 3136, 3145, 3153, 3161, 3169, 3177, 3185, 3193, 3201, 3209, 3216
3224, 3232, 3241, 3248, 3256, 3264, 3272, 3280, 3288, 3296, 3304, 3312, 3319, 3327, 3334, 3342
3350, 3358, 3366, 3372, 3380, 3387, 3395, 3403, 3411, 3419, 3426, 3434, 3441, 3450, 3458, 3466
3474, 3482, 3490, 3498, 3506, 3514, 3522, 3530, 3539, 3547, 3556, 3564, 3572, 3580, 3588, 3597
3604, 3612, 3620, 3628, 3636, 3644, 3651, 3659, 3667, 3676, 3685, 3692, 3700, 3708, 3717, 3724
3732, 3741, 3748, 3756, 3765, 3772, 3780, 3789, 3796, 3804, 3812, 3820, 3828, 3836, 3844, 3852
3859, 3867, 3875, 3883, 3890, 3898, 3907, 3915, 3923, 3932, 3940, 3949, 3957, 3965, 3973, 3980
3988, 3997, 4005, 4013, 4021, 4029, 4037, 4044, 4052, 4060, 4068, 4076, 4084, 4092, 4100, 4108
** ... 215 like lines cut
*NSet, NSet=FaceF, Unsorted
145, 151, 157, 165, 171, 179, 185, 193, 201, 209, 217, 225, 233, 241, 249, 255
1687, 1695, 1702, 1709, 1717, 1724, 1733, 1740, 1748, 1757, 1764, 1772, 1780, 1788, 1796, 1805
1813, 1820, 1828, 1836, 1844, 1853, 1860, 1868, 1876, 1884, 1893, 1901, 1909, 1917, 1925, 1933
1940, 1948, 1957, 1965, 1973, 1981, 1989, 1997, 2004, 2012, 2020, 2028, 2036, 2043, 2050, 2057
2065, 2073, 2081, 2089, 2097, 2104, 2111, 2118, 2125, 2133, 2141, 2148, 2156, 2164, 2172, 2180
2188, 2195, 2203, 2210, 2217, 2225, 2233, 2241, 2249, 2257, 2265, 2273, 2281, 2289, 2297, 2305
2313, 2321, 2329, 2337, 2346, 2354, 2362, 2370, 2378, 2386, 2394, 2403, 2410, 2418, 2426, 2433
2441, 2450, 2458, 2465, 2473, 2482, 2490, 2499, 2507, 2516, 2524, 2533, 2541, 2549, 2557, 2566
2574, 2583, 2591, 2599, 2607, 2615, 2624, 2632, 2639, 2647, 2655, 2663, 2671, 2678, 2685, 2693
2701, 2708, 2715, 2724, 2732, 2741, 2750, 2760, 2767, 2775, 2783, 2791, 2799, 2807, 2815, 2823
2831, 2839, 2847, 2855, 2864, 2872, 2879, 2886, 2894, 2901, 2909, 2917, 2925, 2933, 2942, 2950
2958, 2966, 2975, 2984, 2993, 3001, 3009, 3017, 3026, 3034, 3042, 3050, 3059, 3067, 3075, 3083
3091, 3098, 3106, 3113, 3121, 3129, 3137, 3146, 3154, 3162, 3170, 3178, 3186, 3194, 3202, 3210
3217, 3225, 3233, 3242, 3249, 3257, 3265, 3273, 3281, 3289, 3297, 3305, 3313, 3320, 3328, 3335
3343, 3351, 3359, 3367, 3373, 3381, 3388, 3396, 3404, 3412, 3420, 3427, 3435, 3442, 3451, 3459
3467, 3475, 3483, 3491, 3499, 3507, 3515, 3523, 3531, 3540, 3548, 3557, 3565, 3573, 3581, 3589
3598, 3605, 3613, 3621, 3629, 3637, 3645, 3652, 3660, 3668, 3677, 3686, 3693, 3701, 3709, 3718
3725, 3733, 3742, 3749, 3757, 3766, 3773, 3781, 3790, 3797, 3805, 3813, 3821, 3829, 3837, 3845
3853, 3860, 3868, 3876, 3884, 3891, 3899, 3908, 3916, 3924, 3933, 3941, 3950, 3958, 3966, 3974
3981, 3989, 3998, 4006, 4014, 4022, 4030, 4038, 4045, 4053, 4061, 4069, 4077, 4085, 4093, 4101
** ... 215 like lines cut
*NSet, NSet=Edge1, Unsorted
114, 115, 116, 117, 118, 119
*NSet, NSet=Edge2, Unsorted
130, 131, 132, 133, 134, 135
*NSet, NSet=Edge3, Unsorted
138, 139, 140, 141, 142, 143
*NSet, NSet=Edge4, Unsorted
122, 123, 124, 125, 126, 127
*NSet, NSet=Edge5, Unsorted
1, 8, 29, 36, 263, 271, 280, 287, 294, 302, 310, 318, 326, 335, 343, 351
359, 366, 373, 380, 387, 395, 403, 411, 418, 426, 434, 441, 447, 454, 461, 469
476, 484, 492, 500, 508, 516, 524, 532, 539, 546, 553, 560, 566, 574, 583, 1664
1671, 1679
*NSet, NSet=Edge6, Unsorted
15, 22, 43, 50, 1147, 1155, 1164, 1171, 1178, 1186, 1194, 1202, 1210, 1219, 1227, 1235
1243, 1250, 1257, 1264, 1271, 1101, 1109, 1117, 1124, 1132, 1140, 976, 982, 989, 996, 1004
1011, 1019, 1027, 1035, 1043, 1051, 1059, 1067, 1074, 1081, 1088, 1095, 952, 960, 969, 1279
1286, 1294
*NSet, NSet=Edge7, Unsorted
21, 28, 49, 56, 1154, 1163, 1170, 1177, 1185, 1193, 1201, 1209, 1218, 1226, 1234, 1242
1249, 1256, 1263, 1270, 1278, 1108, 1116, 1123, 1131, 1139, 1146, 981, 988, 995, 1003, 1010
1018, 1026, 1034, 1042, 1050, 1058, 1066, 1073, 1080, 1087, 1094, 1100, 959, 968, 975, 1285
1293, 1301
*NSet, NSet=Edge8, Unsorted
7, 14, 35, 42, 270, 279, 286, 293, 301, 309, 317, 325, 334, 342, 350, 358
365, 372, 379, 386, 394, 402, 410, 417, 425, 433, 440, 446, 453, 460, 468, 475
483, 491, 499, 507, 515, 523, 531, 538, 545, 552, 559, 565, 573, 582, 589, 1670
1678, 1686
*NSet, NSet=Edge9, Unsorted
57, 64, 85, 92, 1302, 1310, 1319, 1327, 1335, 1344, 1351, 1358, 1365, 1373, 1381, 1389
1397, 1405, 1413, 1421, 1429, 1436, 1443, 1452, 1460, 1468, 1476, 1484, 1491, 1499, 1507, 1515
1522, 1529, 1536, 1543, 1551, 1559, 1567, 1576, 1584, 1592, 1600, 1608, 1615, 1622, 1631, 1639
1647, 1656
*NSet, NSet=Edge10, Unsorted
71, 78, 99, 106, 927, 935, 944, 794, 802, 811, 818, 825, 832, 840, 848, 856
864, 872, 880, 888, 896, 903, 910, 919, 747, 755, 763, 771, 778, 786, 615, 623
630, 637, 644, 651, 659, 667, 675, 684, 692, 700, 708, 716, 723, 730, 739, 590
598, 607
*NSet, NSet=Edge11, Unsorted
77, 84, 105, 112, 934, 943, 951, 801, 810, 817, 824, 831, 839, 847, 855, 863
871, 879, 887, 895, 902, 909, 918, 926, 754, 762, 770, 777, 785, 793, 622, 629
636, 643, 650, 658, 666, 674, 683, 691, 699, 707, 715, 722, 729, 738, 746, 597
606, 614
*NSet, NSet=Edge12, Unsorted
63, 70, 91, 98, 1309, 1318, 1326, 1334, 1343, 1350, 1357, 1364, 1372, 1380, 1388, 1396
1404, 1412, 1420, 1428, 1435, 1442, 1451, 1459, 1467, 1475, 1483, 1490, 1498, 1506, 1514, 1521
1528, 1535, 1542, 1550, 1558, 1566, 1575, 1583, 1591, 1599, 1607, 1614, 1621, 1630, 1638, 1646
1655, 1663
*NSet, NSet=MasterNode1, Unsorted
113
*NSet, NSet=MasterNode2, Unsorted
129
*NSet, NSet=MasterNode3, Unsorted
137
*NSet, NSet=MasterNode4, Unsorted
121
*NSet, NSet=MasterNode5, Unsorted
120
*NSet, NSet=MasterNode6, Unsorted
136
*NSet, NSet=MasterNode7, Unsorted
144
*NSet, NSet=MasterNode8, Unsorted
128
***************************
*** BOUNDARY CONDITIONS ***
***************************
*** Name: Translation stop Vertex 1 Type: Displacement/Rotation
*Boundary
MasterNode1, 1, 1
MasterNode1, 2, 2
MasterNode1, 3, 3

*****************
*** EQUATIONS ***
*****************
*Equation
3
FaceA, 1, 1.0, FaceB, 1, -1.0, ConstraintsDriver0, 1, -3.5
*Equation
2
FaceA, 2, 1.0, FaceB, 2, -1.0
*Equation
2
FaceA, 3, 1.0, FaceB, 3, -1.0
*Equation
3
FaceC, 1, 1.0, FaceD, 1, -1.0, ConstraintsDriver3, 1, -3.5
*Equation
3
FaceC, 2, 1.0, FaceD, 2, -1.0, ConstraintsDriver1, 1, -3.5
*Equation
2
FaceC, 3, 1.0, FaceD, 3, -1.0
*Equation
3
FaceE, 1, 1.0, FaceF, 1, -1.0, ConstraintsDriver4, 1, -0.44
*Equation
3
FaceE, 2, 1.0, FaceF, 2, -1.0, ConstraintsDriver5, 1, -0.44
*Equation
3
FaceE, 3, 1.0, FaceF, 3, -1.0, ConstraintsDriver2, 1, -0.44
*Equation
3
Edge2, 1, 1.0, Edge1, 1, -1.0, ConstraintsDriver0, 1, -3.5
*Equation
2
Edge2, 2, 1.0, Edge1, 2, -1.0
*Equation
2
Edge2, 3, 1.0, Edge1, 3, -1.0
*Equation
4
Edge3, 1, 1.0, Edge1, 1, -1.0, ConstraintsDriver0, 1, -3.5, ConstraintsDriver3, 1, -3.5
*Equation
3
Edge3, 2, 1.0, Edge1, 2, -1.0, ConstraintsDriver1, 1, -3.5
*Equation
2
Edge3, 3, 1.0, Edge1, 3, -1.0
*Equation
3
Edge4, 1, 1.0, Edge1, 1, -1.0, ConstraintsDriver3, 1, -3.5
*Equation
3
Edge4, 2, 1.0, Edge1, 2, -1.0, ConstraintsDriver1, 1, -3.5
*Equation
2
Edge4, 3, 1.0, Edge1, 3, -1.0
*Equation
3
Edge6, 1, 1.0, Edge5, 1, -1.0, ConstraintsDriver0, 1, -3.5
*Equation
2
Edge6, 2, 1.0, Edge5, 2, -1.0
*Equation
2
Edge6, 3, 1.0, Edge5, 3, -1.0
*Equation
4
Edge7, 1, 1.0, Edge5, 1, -1.0, ConstraintsDriver4, 1, -0.44, ConstraintsDriver0, 1, -3.5
*Equation
3
Edge7, 2, 1.0, Edge5, 2, -1.0, ConstraintsDriver5, 1, -0.44
*Equation
3
Edge7, 3, 1.0, Edge5, 3, -1.0, ConstraintsDriver2, 1, -0.44
*Equation
3
Edge8, 1, 1.0, Edge5, 1, -1.0, ConstraintsDriver4, 1, -0.44
*Equation
3
Edge8, 2, 1.0, Edge5, 2, -1.0, ConstraintsDriver5, 1, -0.44
*Equation
3
Edge8, 3, 1.0, Edge5, 3, -1.0, ConstraintsDriver2, 1, -0.44
*Equation
3
Edge10, 1, 1.0, Edge9, 1, -1.0, ConstraintsDriver3, 1, -3.5
*Equation
3
Edge10, 2, 1.0, Edge9, 2, -1.0, ConstraintsDriver1, 1, -3.5
*Equation
2
Edge10, 3, 1.0, Edge9, 3, -1.0
*Equation
4
Edge11, 1, 1.0, Edge9, 1, -1.0, ConstraintsDriver3, 1, -3.5, ConstraintsDriver4, 1, -0.44
*Equation
4
Edge11, 2, 1.0, Edge9, 2, -1.0, ConstraintsDriver1, 1, -3.5, ConstraintsDriver5, 1, -0.44
*Equation
3
Edge11, 3, 1.0, Edge9, 3, -1.0, ConstraintsDriver2, 1, -0.44
*Equation
3
Edge12, 1, 1.0, Edge9, 1, -1.0, ConstraintsDriver4, 1, -0.44
*Equation
3
Edge12, 2, 1.0, Edge9, 2, -1.0, ConstraintsDriver5, 1, -0.44
*Equation
3
Edge12, 3, 1.0, Edge9, 3, -1.0, ConstraintsDriver2, 1, -0.44
*Equation
3
MasterNode2, 1, 1.0, MasterNode1, 1, -1.0, ConstraintsDriver0, 1, -3.5
*Equation
2
MasterNode2, 2, 1.0, MasterNode1, 2, -1.0
*Equation
2
MasterNode2, 3, 1.0, MasterNode1, 3, -1.0
*Equation
4
MasterNode3, 1, 1.0, MasterNode1, 1, -1.0, ConstraintsDriver0, 1, -3.5, ConstraintsDriver3, 1, -3.5
*Equation
3
MasterNode3, 2, 1.0, MasterNode1, 2, -1.0, ConstraintsDriver1, 1, -3.5
*Equation
2
MasterNode3, 3, 1.0, MasterNode1, 3, -1.0
*Equation
3
MasterNode4, 1, 1.0, MasterNode1, 1, -1.0, ConstraintsDriver3, 1, -3.5
*Equation
3
MasterNode4, 2, 1.0, MasterNode1, 2, -1.0, ConstraintsDriver1, 1, -3.5
*Equation
2
MasterNode4, 3, 1.0, MasterNode1, 3, -1.0
*Equation
3
MasterNode5, 1, 1.0, MasterNode1, 1, -1.0, ConstraintsDriver4, 1, -0.44
*Equation
3
MasterNode5, 2, 1.0, MasterNode1, 2, -1.0, ConstraintsDriver5, 1, -0.44
*Equation
3
MasterNode5, 3, 1.0, MasterNode1, 3, -1.0, ConstraintsDriver2, 1, -0.44
*Equation
4
MasterNode6, 1, 1.0, MasterNode1, 1, -1.0, ConstraintsDriver4, 1, -0.44, ConstraintsDriver0, 1, -3.5
*Equation
3
MasterNode6, 2, 1.0, MasterNode1, 2, -1.0, ConstraintsDriver5, 1, -0.44
*Equation
3
MasterNode6, 3, 1.0, MasterNode1, 3, -1.0, ConstraintsDriver2, 1, -0.44
*Equation
5
MasterNode7, 1, 1.0, MasterNode1, 1, -1.0, ConstraintsDriver0, 1, -3.5, ConstraintsDriver4, 1, -0.44,
ConstraintsDriver3, 1, -3.5
*Equation
4
MasterNode7, 2, 1.0, MasterNode1, 2, -1.0, ConstraintsDriver1, 1, -3.5, ConstraintsDriver5, 1, -0.44
*Equation
3
MasterNode7, 3, 1.0, MasterNode1, 3, -1.0, ConstraintsDriver2, 1, -0.44
*Equation
4
MasterNode8, 1, 1.0, MasterNode1, 1, -1.0, ConstraintsDriver3, 1, -3.5, ConstraintsDriver4, 1, -0.44
*Equation
4
MasterNode8, 2, 1.0, MasterNode1, 2, -1.0, ConstraintsDriver1, 1, -3.5, ConstraintsDriver5, 1, -0.44
*Equation
3
MasterNode8, 3, 1.0, MasterNode1, 3, -1.0, ConstraintsDriver2, 1, -0.44
*******************
*** MANUFACTURING COOLING ANALYSIS ***
*******************
** Reference/stress-free temperature: 1050 degC
** Final temperature: 23 degC
** Constraint-driver DOFs are intentionally left free.
** This permits macroscopic free contraction while retaining periodicity.
**
*Initial Conditions, type=TEMPERATURE
AllNodes, 1050.
**
*Step, Name=Manufacturing_Cooling, nlgeom=NO, inc=10000
Uniform cooling from 1050 degC to 23 degC with progressive damage
*Static
0.001, 1.0, 1.0E-12, 0.0025
** Surgical stability update: preserve the existing extended iteration
** controls, but reduce the global increment and limit Newton overshoot.
*Controls, parameters=time incrementation
 8, 10, , 30, , , , 20, , ,
*Controls, parameters=field, field=displacement
 , 0.08
*Controls, parameters=line search
5
**
*Temperature
AllNodes, 23.
**
** 101 requested intervals retain about 10 degC output resolution.
** TIME MARKS=NO avoids forcing cutbacks only to hit output times.
*Output, field, number interval=101, time marks=NO
*Element Output, directions=YES
S, E, EE, THE, IVOL, SDV
*Node Output
U, RF
**
*Output, history, frequency=1
*Node Output, nset=ConstraintsDriver0
U, RF
*Node Output, nset=ConstraintsDriver1
U, RF
*Node Output, nset=ConstraintsDriver2
U, RF
*Node Output, nset=ConstraintsDriver3
U, RF
*Node Output, nset=ConstraintsDriver4
U, RF
*Node Output, nset=ConstraintsDriver5
U, RF
**
*Restart, write, number interval=20, time marks=NO
**
*End Step
**
*Step, Name=Heating_to_500C, nlgeom=NO, inc=10000
Uniform reheating from 23 degC to 500 degC before tension
*Static
0.005, 1.0, 1.0E-12, 0.01
*Controls, parameters=time incrementation
 8, 10, , 30, , , , 20, , ,
*Controls, parameters=field, field=displacement
 , 0.08
*Controls, parameters=line search
5
*Temperature
AllNodes, 500.
*Output, field, number interval=21, time marks=NO
*Element Output, directions=YES
S, E, EE, THE, IVOL, SDV
*Node Output
U, RF
*Output, history, frequency=1
*Node Output, nset=ConstraintsDriver0
U, RF
*Node Output, nset=ConstraintsDriver1
U, RF
*Node Output, nset=ConstraintsDriver2
U, RF
*Node Output, nset=ConstraintsDriver3
U, RF
*Node Output, nset=ConstraintsDriver4
U, RF
*Node Output, nset=ConstraintsDriver5
U, RF
*Restart, write, number interval=5, time marks=NO
*End Step
**
*Step, Name=Tension_at_500C, nlgeom=NO, inc=10000
Uniaxial x tension at 500 degC via ConstraintsDriver0
*Static
0.0005, 1.0, 1.0E-12, 0.0025
*Controls, parameters=time incrementation
 8, 10, , 30, , , , 20, , ,
*Controls, parameters=field, field=displacement
 , 0.08
*Controls, parameters=line search
5
*Boundary
ConstraintsDriver0, 1, 1, 0.003200
*Output, field, number interval=101, time marks=NO
*Element Output, directions=YES
S, E, EE, THE, IVOL, SDV
*Node Output
U, RF
*Output, history, frequency=1
*Node Output, nset=ConstraintsDriver0
U, RF
*Node Output, nset=ConstraintsDriver1
U, RF
*Node Output, nset=ConstraintsDriver2
U, RF
*Node Output, nset=ConstraintsDriver3
U, RF
*Node Output, nset=ConstraintsDriver4
U, RF
*Node Output, nset=ConstraintsDriver5
U, RF
*Restart, write, number interval=20, time marks=NO
*End Step
